* Multi-domian SPICE model
.subckt fe_tanh_md in out

*Grain_0:
XU_0 in out fe_tanh Vc=0.07780821063512039 Qo=2.7434480481591613e-14 K=2.62 tau=9.804763124152627e-08 off=-0.2

*Grain_1:
XU_1 in out fe_tanh Vc=0.35532533717426673 Qo=1.2528454192368148e-13 K=2.62 tau=9.771074966329175e-08 off=-0.2

*Grain_2:
XU_2 in out fe_tanh Vc=0.5314233904330342 Qo=1.8737514348794998e-13 K=2.62 tau=1.174388695545993e-07 off=-0.2

*Grain_3:
XU_3 in out fe_tanh Vc=0.4645101699707024 Qo=1.637821392824827e-13 K=2.62 tau=1.0393505065518789e-07 off=-0.2

*Grain_4:
XU_4 in out fe_tanh Vc=1.1323470127327455 Qo=3.992554483084729e-13 K=2.62 tau=9.581970698504362e-08 off=-0.2

*Grain_5:
XU_5 in out fe_tanh Vc=0.18492934524352816 Qo=6.520443628178085e-14 K=2.62 tau=1.0560977768885068e-07 off=-0.2

*Grain_6:
XU_6 in out fe_tanh Vc=0.31048025613782243 Qo=1.0947256667907404e-13 K=2.62 tau=1.0425079513076926e-07 off=-0.2

*Grain_7:
XU_7 in out fe_tanh Vc=0.36051898953963823 Qo=1.271157773843469e-13 K=2.62 tau=1.0228377471602344e-07 off=-0.2

*Grain_8:
XU_8 in out fe_tanh Vc=0.4391765928062188 Qo=1.5484974612532387e-13 K=2.62 tau=9.013616379809114e-08 off=-0.2

*Grain_9:
XU_9 in out fe_tanh Vc=0.3469030451122352 Qo=1.2231491692781024e-13 K=2.62 tau=9.166048232174367e-08 off=-0.2

*Grain_10:
XU_10 in out fe_tanh Vc=0.5232354572916095 Qo=1.844881513553793e-13 K=2.62 tau=7.548412918751706e-08 off=-0.2

*Grain_11:
XU_11 in out fe_tanh Vc=0.32419929505827927 Qo=1.1430977733354428e-13 K=2.62 tau=1.0323820324713807e-07 off=-0.2

*Grain_12:
XU_12 in out fe_tanh Vc=0.8738937961387272 Qo=3.0812715133086953e-13 K=2.62 tau=1.0551749865726849e-07 off=-0.2

*Grain_13:
XU_13 in out fe_tanh Vc=0.12487232010251392 Qo=4.4028865341843084e-14 K=2.62 tau=1.1646630260416093e-07 off=-0.2

*Grain_14:
XU_14 in out fe_tanh Vc=0.5511527448911273 Qo=1.9433153774733222e-13 K=2.62 tau=9.984080910163287e-08 off=-0.2

*Grain_15:
XU_15 in out fe_tanh Vc=-0.1514045216962821 Qo=5.338388277273277e-14 K=2.62 tau=9.665068554374758e-08 off=-0.2

*Grain_16:
XU_16 in out fe_tanh Vc=0.5454616820815898 Qo=1.923249198044015e-13 K=2.62 tau=1.039712709182433e-07 off=-0.2

*Grain_17:
XU_17 in out fe_tanh Vc=0.6840932983272576 Qo=2.412051901380644e-13 K=2.62 tau=9.796800913153818e-08 off=-0.2

*Grain_18:
XU_18 in out fe_tanh Vc=0.3496643574766144 Qo=1.2328853101745164e-13 K=2.62 tau=1.0505326242721593e-07 off=-0.2

*Grain_19:
XU_19 in out fe_tanh Vc=0.29692287549362206 Qo=1.0469235528969992e-13 K=2.62 tau=8.984538731550499e-08 off=-0.2

*Grain_20:
XU_20 in out fe_tanh Vc=1.2733894773799008 Qo=4.489857622670284e-13 K=2.62 tau=9.673709692950061e-08 off=-0.2

*Grain_21:
XU_21 in out fe_tanh Vc=1.0702328904920926 Qo=3.7735456329476175e-13 K=2.62 tau=9.466823614790931e-08 off=-0.2

*Grain_22:
XU_22 in out fe_tanh Vc=0.5442924836840755 Qo=1.9191267088678868e-13 K=2.62 tau=1.0491061922071995e-07 off=-0.2

*Grain_23:
XU_23 in out fe_tanh Vc=0.28598569075004765 Qo=1.0083600158458442e-13 K=2.62 tau=9.596691571940018e-08 off=-0.2

*Grain_24:
XU_24 in out fe_tanh Vc=0.591328623006003 Qo=2.0849719372343633e-13 K=2.62 tau=1.0741832051514056e-07 off=-0.2

*Grain_25:
XU_25 in out fe_tanh Vc=0.07145892397221287 Qo=2.5195778683880024e-14 K=2.62 tau=1.030452444675879e-07 off=-0.2

*Grain_26:
XU_26 in out fe_tanh Vc=0.5684586580843971 Qo=2.0043344825062527e-13 K=2.62 tau=1.0205386448915763e-07 off=-0.2

*Grain_27:
XU_27 in out fe_tanh Vc=0.43714842210920635 Qo=1.541346312428926e-13 K=2.62 tau=9.450579589239667e-08 off=-0.2

*Grain_28:
XU_28 in out fe_tanh Vc=0.12469030831649203 Qo=4.3964689610898004e-14 K=2.62 tau=9.215030718919846e-08 off=-0.2

*Grain_29:
XU_29 in out fe_tanh Vc=0.5064079749379602 Qo=1.7855493129521844e-13 K=2.62 tau=8.724564630753498e-08 off=-0.2

*Grain_30:
XU_30 in out fe_tanh Vc=0.6913657553658613 Qo=2.437693935691703e-13 K=2.62 tau=9.557732478031654e-08 off=-0.2

*Grain_31:
XU_31 in out fe_tanh Vc=0.506874554627891 Qo=1.7871944312876436e-13 K=2.62 tau=1.0947801486759766e-07 off=-0.2

*Grain_32:
XU_32 in out fe_tanh Vc=0.797620711308139 Qo=2.812339425039973e-13 K=2.62 tau=1.0953734753989458e-07 off=-0.2

*Grain_33:
XU_33 in out fe_tanh Vc=0.8578633491004687 Qo=3.02474958807838e-13 K=2.62 tau=1.0512571996514359e-07 off=-0.2

*Grain_34:
XU_34 in out fe_tanh Vc=0.4663705123720638 Qo=1.6443807940605867e-13 K=2.62 tau=1.0431819523809121e-07 off=-0.2

*Grain_35:
XU_35 in out fe_tanh Vc=0.10064708258121796 Qo=3.5487262848803223e-14 K=2.62 tau=9.1744861108947e-08 off=-0.2

*Grain_36:
XU_36 in out fe_tanh Vc=-0.10038550276876218 Qo=3.539503214203566e-14 K=2.62 tau=9.497154477820546e-08 off=-0.2

*Grain_37:
XU_37 in out fe_tanh Vc=-0.18325007676926514 Qo=6.461234120846571e-14 K=2.62 tau=8.97566424077366e-08 off=-0.2

*Grain_38:
XU_38 in out fe_tanh Vc=1.008130398196274 Qo=3.554577788957794e-13 K=2.62 tau=8.65001002814883e-08 off=-0.2

*Grain_39:
XU_39 in out fe_tanh Vc=0.6137338950412136 Qo=2.163970926327847e-13 K=2.62 tau=1.0902805788556373e-07 off=-0.2

*Grain_40:
XU_40 in out fe_tanh Vc=0.40823901979598565 Qo=1.4394143405942536e-13 K=2.62 tau=1.0426961882209138e-07 off=-0.2

*Grain_41:
XU_41 in out fe_tanh Vc=0.6215757976287541 Qo=2.191620774810459e-13 K=2.62 tau=9.595671954769299e-08 off=-0.2

*Grain_42:
XU_42 in out fe_tanh Vc=0.7314689527545618 Qo=2.579094229700407e-13 K=2.62 tau=1.0096444634073725e-07 off=-0.2

*Grain_43:
XU_43 in out fe_tanh Vc=0.8370602136161993 Qo=2.951399589441927e-13 K=2.62 tau=1.0096646380561798e-07 off=-0.2

*Grain_44:
XU_44 in out fe_tanh Vc=0.16206190330465287 Qo=5.71415803901581e-14 K=2.62 tau=1.08745198869301e-07 off=-0.2

*Grain_45:
XU_45 in out fe_tanh Vc=0.4372452035230428 Qo=1.5416875550545054e-13 K=2.62 tau=9.227371794806026e-08 off=-0.2

*Grain_46:
XU_46 in out fe_tanh Vc=0.16436061756274012 Qo=5.795208651710129e-14 K=2.62 tau=1.1103766242424353e-07 off=-0.2

*Grain_47:
XU_47 in out fe_tanh Vc=0.870064767676688 Qo=3.0677707007661873e-13 K=2.62 tau=1.0068905162667571e-07 off=-0.2

*Grain_48:
XU_48 in out fe_tanh Vc=0.6105620878127682 Qo=2.1527874171853196e-13 K=2.62 tau=1.0773291769543816e-07 off=-0.2

*Grain_49:
XU_49 in out fe_tanh Vc=0.7373931738220174 Qo=2.5999825043332627e-13 K=2.62 tau=1.0503041339648578e-07 off=-0.2

*Grain_50:
XU_50 in out fe_tanh Vc=0.06858511268417516 Qo=2.4182498478026512e-14 K=2.62 tau=1.130795750128404e-07 off=-0.2

*Grain_51:
XU_51 in out fe_tanh Vc=0.5039654755280026 Qo=1.7769372780728558e-13 K=2.62 tau=9.070378494744705e-08 off=-0.2

*Grain_52:
XU_52 in out fe_tanh Vc=0.1854721858423125 Qo=6.539583703101286e-14 K=2.62 tau=1.1803308343927239e-07 off=-0.2

*Grain_53:
XU_53 in out fe_tanh Vc=0.7088666140693556 Qo=2.4994004011910385e-13 K=2.62 tau=9.197284883462544e-08 off=-0.2

*Grain_54:
XU_54 in out fe_tanh Vc=0.3385242125698562 Qo=1.1936061537060845e-13 K=2.62 tau=9.298562483715298e-08 off=-0.2

*Grain_55:
XU_55 in out fe_tanh Vc=0.79227380051477 Qo=2.7934866948974706e-13 K=2.62 tau=1.025963810433958e-07 off=-0.2

*Grain_56:
XU_56 in out fe_tanh Vc=0.7070161417167677 Qo=2.492875800866162e-13 K=2.62 tau=1.0970855216520194e-07 off=-0.2

*Grain_57:
XU_57 in out fe_tanh Vc=-0.013086226765454179 Qo=4.614086737685314e-15 K=2.62 tau=1.0077829044769173e-07 off=-0.2

*Grain_58:
XU_58 in out fe_tanh Vc=0.33910373495613744 Qo=1.1956494979065618e-13 K=2.62 tau=9.375473329240663e-08 off=-0.2

*Grain_59:
XU_59 in out fe_tanh Vc=0.4495820541081736 Qo=1.5851861889158157e-13 K=2.62 tau=8.847799358900804e-08 off=-0.2

*Grain_60:
XU_60 in out fe_tanh Vc=0.2869482622064128 Qo=1.0117539568729197e-13 K=2.62 tau=9.160700510284358e-08 off=-0.2

*Grain_61:
XU_61 in out fe_tanh Vc=1.1457429565787425 Qo=4.039787385239353e-13 K=2.62 tau=1.0629185177004861e-07 off=-0.2

*Grain_62:
XU_62 in out fe_tanh Vc=-0.005319715596429686 Qo=1.8756842305790537e-15 K=2.62 tau=9.299975784499801e-08 off=-0.2

*Grain_63:
XU_63 in out fe_tanh Vc=0.6335623123534395 Qo=2.2338841557020718e-13 K=2.62 tau=1.161744607378158e-07 off=-0.2

*Grain_64:
XU_64 in out fe_tanh Vc=1.128578777709742 Qo=3.979268022781274e-13 K=2.62 tau=1.0414058841889105e-07 off=-0.2

*Grain_65:
XU_65 in out fe_tanh Vc=0.16527948251364571 Qo=5.827607009614867e-14 K=2.62 tau=1.002262457866652e-07 off=-0.2

*Grain_66:
XU_66 in out fe_tanh Vc=0.20473197024407527 Qo=7.218666508035149e-14 K=2.62 tau=9.843458304783698e-08 off=-0.2

*Grain_67:
XU_67 in out fe_tanh Vc=0.4615674928159215 Qo=1.6274457758677622e-13 K=2.62 tau=9.915308933614703e-08 off=-0.2

*Grain_68:
XU_68 in out fe_tanh Vc=0.7274769797956291 Qo=2.565018889407792e-13 K=2.62 tau=1.0230584240764726e-07 off=-0.2

*Grain_69:
XU_69 in out fe_tanh Vc=0.41804492986081737 Qo=1.4739891041162463e-13 K=2.62 tau=7.72526380574373e-08 off=-0.2

*Grain_70:
XU_70 in out fe_tanh Vc=0.9626685252201361 Qo=3.3942832831929383e-13 K=2.62 tau=8.43400258774272e-08 off=-0.2

*Grain_71:
XU_71 in out fe_tanh Vc=0.6766923208199666 Qo=2.385956715369924e-13 K=2.62 tau=1.0004630102274168e-07 off=-0.2

*Grain_72:
XU_72 in out fe_tanh Vc=0.3927019567488002 Qo=1.3846320432724245e-13 K=2.62 tau=1.0425234945380932e-07 off=-0.2

*Grain_73:
XU_73 in out fe_tanh Vc=0.157355305836209 Qo=5.5482076138245014e-14 K=2.62 tau=8.99040442895128e-08 off=-0.2

*Grain_74:
XU_74 in out fe_tanh Vc=0.7903233601762936 Qo=2.7866096163784217e-13 K=2.62 tau=9.637966528479385e-08 off=-0.2

*Grain_75:
XU_75 in out fe_tanh Vc=0.9937352227191192 Qo=3.5038216852724043e-13 K=2.62 tau=9.752763129207661e-08 off=-0.2

*Grain_76:
XU_76 in out fe_tanh Vc=0.154909423944543 Qo=5.4619680017456936e-14 K=2.62 tau=9.508251584138256e-08 off=-0.2

*Grain_77:
XU_77 in out fe_tanh Vc=0.40890245835297323 Qo=1.4417535657215047e-13 K=2.62 tau=1.0787823924881604e-07 off=-0.2

*Grain_78:
XU_78 in out fe_tanh Vc=0.2723074666630424 Qo=9.60131818760381e-14 K=2.62 tau=9.83738895416374e-08 off=-0.2

*Grain_79:
XU_79 in out fe_tanh Vc=-0.14152526498763046 Qo=4.990054504868285e-14 K=2.62 tau=9.562457859868135e-08 off=-0.2

*Grain_80:
XU_80 in out fe_tanh Vc=0.8768642055091864 Qo=3.091744911582607e-13 K=2.62 tau=8.936691167929023e-08 off=-0.2

*Grain_81:
XU_81 in out fe_tanh Vc=0.5940061943299828 Qo=2.0944128146978323e-13 K=2.62 tau=8.803938482227676e-08 off=-0.2

*Grain_82:
XU_82 in out fe_tanh Vc=0.7307161391756278 Qo=2.576439876224218e-13 K=2.62 tau=1.0341290241517017e-07 off=-0.2

*Grain_83:
XU_83 in out fe_tanh Vc=0.09181086971337193 Qo=3.2371693071843326e-14 K=2.62 tau=9.572448951029819e-08 off=-0.2

*Grain_84:
XU_84 in out fe_tanh Vc=0.13588087530295828 Qo=4.791038363293194e-14 K=2.62 tau=9.86089050618082e-08 off=-0.2

*Grain_85:
XU_85 in out fe_tanh Vc=0.16240609736079042 Qo=5.72629401417564e-14 K=2.62 tau=9.837871326322018e-08 off=-0.2

*Grain_86:
XU_86 in out fe_tanh Vc=1.0014454778825224 Qo=3.5310073566895797e-13 K=2.62 tau=9.776049417427542e-08 off=-0.2

*Grain_87:
XU_87 in out fe_tanh Vc=0.5358964266710781 Qo=1.8895229613500847e-13 K=2.62 tau=9.542285527729491e-08 off=-0.2

*Grain_88:
XU_88 in out fe_tanh Vc=0.3885534192751014 Qo=1.3700046704771464e-13 K=2.62 tau=1.2017824824252404e-07 off=-0.2

*Grain_89:
XU_89 in out fe_tanh Vc=0.3883893713673554 Qo=1.3694262521988741e-13 K=2.62 tau=9.95323301441307e-08 off=-0.2

*Grain_90:
XU_90 in out fe_tanh Vc=0.7047440776387799 Qo=2.484864705752718e-13 K=2.62 tau=8.468998745438465e-08 off=-0.2

*Grain_91:
XU_91 in out fe_tanh Vc=0.751354722050124 Qo=2.6492096770481044e-13 K=2.62 tau=9.115578663954891e-08 off=-0.2

*Grain_92:
XU_92 in out fe_tanh Vc=0.2599829937369377 Qo=9.166768274198517e-14 K=2.62 tau=1.1159280755583954e-07 off=-0.2

*Grain_93:
XU_93 in out fe_tanh Vc=-0.28528692673896877 Qo=1.0058962363209454e-13 K=2.62 tau=9.875279516703663e-08 off=-0.2

*Grain_94:
XU_94 in out fe_tanh Vc=0.5089339531578689 Qo=1.7944556866633066e-13 K=2.62 tau=8.272497582041194e-08 off=-0.2

*Grain_95:
XU_95 in out fe_tanh Vc=0.8426519949295326 Qo=2.971115711178407e-13 K=2.62 tau=1.0123165955693959e-07 off=-0.2

*Grain_96:
XU_96 in out fe_tanh Vc=0.6184699666734316 Qo=2.1806698921173078e-13 K=2.62 tau=1.234814697618337e-07 off=-0.2

*Grain_97:
XU_97 in out fe_tanh Vc=1.1329690591158004 Qo=3.994747763101743e-13 K=2.62 tau=1.1737379433208077e-07 off=-0.2

*Grain_98:
XU_98 in out fe_tanh Vc=1.0753974450722856 Qo=3.791755391361271e-13 K=2.62 tau=1.1156275655627755e-07 off=-0.2

*Grain_99:
XU_99 in out fe_tanh Vc=0.18684375913109935 Qo=6.587944152870209e-14 K=2.62 tau=7.409569783137805e-08 off=-0.2

*Grain_100:
XU_100 in out fe_tanh Vc=0.4472527795702959 Qo=1.5769733748279375e-13 K=2.62 tau=9.541127793443773e-08 off=-0.2

*Grain_101:
XU_101 in out fe_tanh Vc=0.19752287176943062 Qo=6.964480131330017e-14 K=2.62 tau=1.0140298348337182e-07 off=-0.2

*Grain_102:
XU_102 in out fe_tanh Vc=0.26370843676567407 Qo=9.298124069715316e-14 K=2.62 tau=1.0973901833018787e-07 off=-0.2

*Grain_103:
XU_103 in out fe_tanh Vc=0.0030652796272299665 Qo=1.0807902330284813e-15 K=2.62 tau=8.32744524192486e-08 off=-0.2

*Grain_104:
XU_104 in out fe_tanh Vc=0.9166765440144701 Qo=3.232119663133148e-13 K=2.62 tau=9.271298442502582e-08 off=-0.2

*Grain_105:
XU_105 in out fe_tanh Vc=1.0422160901786959 Qo=3.67476089608238e-13 K=2.62 tau=9.051074170946301e-08 off=-0.2

*Grain_106:
XU_106 in out fe_tanh Vc=0.7620757192084293 Qo=2.6870109559725125e-13 K=2.62 tau=8.295991880307153e-08 off=-0.2

*Grain_107:
XU_107 in out fe_tanh Vc=0.6224481865969188 Qo=2.194696740434666e-13 K=2.62 tau=1.0989729191986353e-07 off=-0.2

*Grain_108:
XU_108 in out fe_tanh Vc=-0.23508784431134094 Qo=8.288987529174469e-14 K=2.62 tau=9.473284543606496e-08 off=-0.2

*Grain_109:
XU_109 in out fe_tanh Vc=0.6795852708951376 Qo=2.396156999083386e-13 K=2.62 tau=1.2106234532747563e-07 off=-0.2

*Grain_110:
XU_110 in out fe_tanh Vc=0.4361308678243095 Qo=1.5377585068567253e-13 K=2.62 tau=9.634339981477336e-08 off=-0.2

*Grain_111:
XU_111 in out fe_tanh Vc=0.6396679440724778 Qo=2.2554120680980082e-13 K=2.62 tau=1.0339216398239941e-07 off=-0.2

*Grain_112:
XU_112 in out fe_tanh Vc=0.27664148378031894 Qo=9.754131762212784e-14 K=2.62 tau=1.1566780656706332e-07 off=-0.2

*Grain_113:
XU_113 in out fe_tanh Vc=1.1685988297541925 Qo=4.120375153728478e-13 K=2.62 tau=1.0063993826082014e-07 off=-0.2

*Grain_114:
XU_114 in out fe_tanh Vc=-0.2181505810839472 Qo=7.691794747550754e-14 K=2.62 tau=8.63594796399289e-08 off=-0.2

*Grain_115:
XU_115 in out fe_tanh Vc=-0.3048283868164989 Qo=1.0747976801021005e-13 K=2.62 tau=9.81145323322743e-08 off=-0.2

*Grain_116:
XU_116 in out fe_tanh Vc=0.3438205024565624 Qo=1.2122803990505866e-13 K=2.62 tau=1.0113878443844883e-07 off=-0.2

*Grain_117:
XU_117 in out fe_tanh Vc=0.3108693895347555 Qo=1.0960977164106654e-13 K=2.62 tau=7.39226988053554e-08 off=-0.2

*Grain_118:
XU_118 in out fe_tanh Vc=0.5183505577074803 Qo=1.8276577936916582e-13 K=2.62 tau=1.1187867736211144e-07 off=-0.2

*Grain_119:
XU_119 in out fe_tanh Vc=0.4986048316732179 Qo=1.7580361263817418e-13 K=2.62 tau=1.0216418798999235e-07 off=-0.2

*Grain_120:
XU_120 in out fe_tanh Vc=-0.34508831566777615 Qo=1.2167505952565443e-13 K=2.62 tau=1.0824482015052401e-07 off=-0.2

*Grain_121:
XU_121 in out fe_tanh Vc=-0.004455668264814916 Qo=1.571028854740644e-15 K=2.62 tau=1.0676234035099276e-07 off=-0.2

*Grain_122:
XU_122 in out fe_tanh Vc=0.31750454723774557 Qo=1.1194926901556083e-13 K=2.62 tau=1.0435538517973437e-07 off=-0.2

*Grain_123:
XU_123 in out fe_tanh Vc=0.37406927543056495 Qo=1.318934872270511e-13 K=2.62 tau=1.0072103665268014e-07 off=-0.2

*Grain_124:
XU_124 in out fe_tanh Vc=0.6315099267959101 Qo=2.226647627441219e-13 K=2.62 tau=8.821196977466854e-08 off=-0.2

*Grain_125:
XU_125 in out fe_tanh Vc=0.35414178980563066 Qo=1.2486723368694342e-13 K=2.62 tau=9.966477062622218e-08 off=-0.2

*Grain_126:
XU_126 in out fe_tanh Vc=0.4142816514477981 Qo=1.4607201203771227e-13 K=2.62 tau=9.20258789123082e-08 off=-0.2

*Grain_127:
XU_127 in out fe_tanh Vc=0.3654144980142052 Qo=1.2884188997062392e-13 K=2.62 tau=1.0553456513045044e-07 off=-0.2

*Grain_128:
XU_128 in out fe_tanh Vc=0.13906557566256705 Qo=4.9033280550136825e-14 K=2.62 tau=1.0032911398551144e-07 off=-0.2

*Grain_129:
XU_129 in out fe_tanh Vc=0.7910289180613337 Qo=2.7890973504964235e-13 K=2.62 tau=1.0189839045593642e-07 off=-0.2

*Grain_130:
XU_130 in out fe_tanh Vc=0.609335265147395 Qo=2.1484617499847989e-13 K=2.62 tau=8.576156085107479e-08 off=-0.2

*Grain_131:
XU_131 in out fe_tanh Vc=0.1485158833299296 Qo=5.236537467142573e-14 K=2.62 tau=8.502433716500449e-08 off=-0.2

*Grain_132:
XU_132 in out fe_tanh Vc=0.5919237530856629 Qo=2.0870703127684064e-13 K=2.62 tau=1.0217396258839339e-07 off=-0.2

*Grain_133:
XU_133 in out fe_tanh Vc=0.5588268136601166 Qo=1.9703734588941278e-13 K=2.62 tau=1.1259561273860159e-07 off=-0.2

*Grain_134:
XU_134 in out fe_tanh Vc=1.1108898375288991 Qo=3.9168983987827066e-13 K=2.62 tau=1.0208650020838426e-07 off=-0.2

*Grain_135:
XU_135 in out fe_tanh Vc=0.6444897647202088 Qo=2.272413377261414e-13 K=2.62 tau=1.0610444338395787e-07 off=-0.2

*Grain_136:
XU_136 in out fe_tanh Vc=0.38133113414744385 Qo=1.3445395378452728e-13 K=2.62 tau=1.1520278555235851e-07 off=-0.2

*Grain_137:
XU_137 in out fe_tanh Vc=0.49801941947794803 Qo=1.7559720152405496e-13 K=2.62 tau=1.1447421728048e-07 off=-0.2

*Grain_138:
XU_138 in out fe_tanh Vc=0.8939233614629779 Qo=3.1518939726169795e-13 K=2.62 tau=9.174448813748025e-08 off=-0.2

*Grain_139:
XU_139 in out fe_tanh Vc=0.7501414534822956 Qo=2.644931800385562e-13 K=2.62 tau=8.692631028398895e-08 off=-0.2

*Grain_140:
XU_140 in out fe_tanh Vc=0.11796598729581786 Qo=4.1593754046542884e-14 K=2.62 tau=9.645598075675096e-08 off=-0.2

*Grain_141:
XU_141 in out fe_tanh Vc=0.3178129718990282 Qo=1.1205801679784411e-13 K=2.62 tau=9.570160822025567e-08 off=-0.2

*Grain_142:
XU_142 in out fe_tanh Vc=0.32528928836904747 Qo=1.1469409924462853e-13 K=2.62 tau=1.0366239629389836e-07 off=-0.2

*Grain_143:
XU_143 in out fe_tanh Vc=0.7168900419497365 Qo=2.527690291651572e-13 K=2.62 tau=1.0344855103245579e-07 off=-0.2

*Grain_144:
XU_144 in out fe_tanh Vc=0.7591867325053137 Qo=2.676824646755111e-13 K=2.62 tau=9.379365595842745e-08 off=-0.2

*Grain_145:
XU_145 in out fe_tanh Vc=0.8100771440404263 Qo=2.8562596948771446e-13 K=2.62 tau=8.865049569009827e-08 off=-0.2

*Grain_146:
XU_146 in out fe_tanh Vc=0.2736922675064798 Qo=9.650145029141568e-14 K=2.62 tau=9.599260173356238e-08 off=-0.2

*Grain_147:
XU_147 in out fe_tanh Vc=0.2426283465158841 Qo=8.554858905554075e-14 K=2.62 tau=9.956199805896202e-08 off=-0.2

*Grain_148:
XU_148 in out fe_tanh Vc=-0.11549007675483963 Qo=4.0720770092070925e-14 K=2.62 tau=8.438433853600005e-08 off=-0.2

*Grain_149:
XU_149 in out fe_tanh Vc=-0.010032060985238012 Qo=3.5372151479013783e-15 K=2.62 tau=1.0502017795665994e-07 off=-0.2

*Grain_150:
XU_150 in out fe_tanh Vc=-0.05165450288995094 Qo=1.821291660293023e-14 K=2.62 tau=9.400493677524426e-08 off=-0.2

*Grain_151:
XU_151 in out fe_tanh Vc=0.8551516015057042 Qo=3.015188208135016e-13 K=2.62 tau=9.681315251947464e-08 off=-0.2

*Grain_152:
XU_152 in out fe_tanh Vc=0.5332218416313317 Qo=1.8800926132582396e-13 K=2.62 tau=7.967287930848973e-08 off=-0.2

*Grain_153:
XU_153 in out fe_tanh Vc=-0.1689112607798549 Qo=5.955660269218824e-14 K=2.62 tau=8.982576877886718e-08 off=-0.2

*Grain_154:
XU_154 in out fe_tanh Vc=0.1773090635751095 Qo=6.251759299120788e-14 K=2.62 tau=1.1505620711980086e-07 off=-0.2

*Grain_155:
XU_155 in out fe_tanh Vc=0.5145370731037581 Qo=1.814211787405987e-13 K=2.62 tau=1.1351443129889518e-07 off=-0.2

*Grain_156:
XU_156 in out fe_tanh Vc=0.10803401509161775 Qo=3.809182930935005e-14 K=2.62 tau=1.215256149345005e-07 off=-0.2

*Grain_157:
XU_157 in out fe_tanh Vc=0.48815839681512885 Qo=1.7212029296179154e-13 K=2.62 tau=1.0992559516936093e-07 off=-0.2

*Grain_158:
XU_158 in out fe_tanh Vc=0.6059221502159151 Qo=2.1364274114227387e-13 K=2.62 tau=8.669607964290323e-08 off=-0.2

*Grain_159:
XU_159 in out fe_tanh Vc=0.8572778037384656 Qo=3.0226850074031744e-13 K=2.62 tau=1.0501388980861631e-07 off=-0.2

*Grain_160:
XU_160 in out fe_tanh Vc=0.6179550956255035 Qo=2.178854502764485e-13 K=2.62 tau=8.728927656659247e-08 off=-0.2

*Grain_161:
XU_161 in out fe_tanh Vc=0.23691088442915428 Qo=8.353266296313645e-14 K=2.62 tau=9.161859746265269e-08 off=-0.2

*Grain_162:
XU_162 in out fe_tanh Vc=0.4980995748033641 Qo=1.756254635762558e-13 K=2.62 tau=9.127045258192862e-08 off=-0.2

*Grain_163:
XU_163 in out fe_tanh Vc=0.09235957377589221 Qo=3.2565161226045916e-14 K=2.62 tau=9.856030601645953e-08 off=-0.2

*Grain_164:
XU_164 in out fe_tanh Vc=0.009132936532871394 Qo=3.220191892416825e-15 K=2.62 tau=1.0538247691537314e-07 off=-0.2

*Grain_165:
XU_165 in out fe_tanh Vc=0.48683137997341586 Qo=1.7165239866958836e-13 K=2.62 tau=1.0319186364475785e-07 off=-0.2

*Grain_166:
XU_166 in out fe_tanh Vc=0.5338678737175532 Qo=1.8823704647234326e-13 K=2.62 tau=1.0608180803765365e-07 off=-0.2

*Grain_167:
XU_167 in out fe_tanh Vc=0.4182310292306856 Qo=1.4746452738814436e-13 K=2.62 tau=1.0057949508895772e-07 off=-0.2

*Grain_168:
XU_168 in out fe_tanh Vc=0.5798219687469053 Qo=2.044400501507611e-13 K=2.62 tau=1.153540405746669e-07 off=-0.2

*Grain_169:
XU_169 in out fe_tanh Vc=0.9622940880605744 Qo=3.392963051194062e-13 K=2.62 tau=9.353354853196293e-08 off=-0.2

*Grain_170:
XU_170 in out fe_tanh Vc=0.01643566970629995 Qo=5.795070418389077e-15 K=2.62 tau=1.0163640576145758e-07 off=-0.2

*Grain_171:
XU_171 in out fe_tanh Vc=0.7239765363069319 Qo=2.5526766381487416e-13 K=2.62 tau=1.1562382197138418e-07 off=-0.2

*Grain_172:
XU_172 in out fe_tanh Vc=0.7264046430059918 Qo=2.561237925614272e-13 K=2.62 tau=9.188943736457602e-08 off=-0.2

*Grain_173:
XU_173 in out fe_tanh Vc=0.18593690281290792 Qo=6.555969208634954e-14 K=2.62 tau=9.982483067134278e-08 off=-0.2

*Grain_174:
XU_174 in out fe_tanh Vc=0.18245859189115055 Qo=6.433327070597161e-14 K=2.62 tau=8.370759473260427e-08 off=-0.2

*Grain_175:
XU_175 in out fe_tanh Vc=0.35403889066812855 Qo=1.2483095236963345e-13 K=2.62 tau=1.102143019495946e-07 off=-0.2

*Grain_176:
XU_176 in out fe_tanh Vc=0.567746096927934 Qo=2.0018220554783905e-13 K=2.62 tau=1.192442290490988e-07 off=-0.2

*Grain_177:
XU_177 in out fe_tanh Vc=1.3109115345044866 Qo=4.622157046524272e-13 K=2.62 tau=7.973998487853772e-08 off=-0.2

*Grain_178:
XU_178 in out fe_tanh Vc=0.2623828597087265 Qo=9.251385406020537e-14 K=2.62 tau=1.152829843113132e-07 off=-0.2

*Grain_179:
XU_179 in out fe_tanh Vc=0.12288189151657547 Qo=4.332705799085534e-14 K=2.62 tau=1.1107078234506429e-07 off=-0.2

*Grain_180:
XU_180 in out fe_tanh Vc=0.3827785460285788 Qo=1.3496429829287274e-13 K=2.62 tau=1.1462439535563688e-07 off=-0.2

*Grain_181:
XU_181 in out fe_tanh Vc=0.3866260737879802 Qo=1.3632090223423155e-13 K=2.62 tau=1.0238255390768587e-07 off=-0.2

*Grain_182:
XU_182 in out fe_tanh Vc=0.20556769661005747 Qo=7.24813347365271e-14 K=2.62 tau=1.0551326829219802e-07 off=-0.2

*Grain_183:
XU_183 in out fe_tanh Vc=0.8838583346907256 Qo=3.1164055867157855e-13 K=2.62 tau=8.915972696651846e-08 off=-0.2

*Grain_184:
XU_184 in out fe_tanh Vc=0.18483826168129075 Qo=6.517232103083241e-14 K=2.62 tau=7.902282588321828e-08 off=-0.2

*Grain_185:
XU_185 in out fe_tanh Vc=0.6311496122101968 Qo=2.2253771903770204e-13 K=2.62 tau=9.596221979150287e-08 off=-0.2

*Grain_186:
XU_186 in out fe_tanh Vc=0.4695713567019867 Qo=1.6556666854308024e-13 K=2.62 tau=1.0820345417268831e-07 off=-0.2

*Grain_187:
XU_187 in out fe_tanh Vc=0.33425288562055977 Qo=1.1785458361811784e-13 K=2.62 tau=1.0577574524705719e-07 off=-0.2

*Grain_188:
XU_188 in out fe_tanh Vc=0.5495310128596542 Qo=1.937597295101211e-13 K=2.62 tau=1.0355182416838313e-07 off=-0.2

*Grain_189:
XU_189 in out fe_tanh Vc=0.47887353298612945 Qo=1.6884653286100412e-13 K=2.62 tau=1.0577964805772853e-07 off=-0.2

*Grain_190:
XU_190 in out fe_tanh Vc=0.9216423056993726 Qo=3.249628495544107e-13 K=2.62 tau=1.0901512092305218e-07 off=-0.2

*Grain_191:
XU_191 in out fe_tanh Vc=0.4433316345901645 Qo=1.563147767665812e-13 K=2.62 tau=9.198878384763537e-08 off=-0.2

*Grain_192:
XU_192 in out fe_tanh Vc=0.8058810714954798 Qo=2.841464717664069e-13 K=2.62 tau=7.106945990235395e-08 off=-0.2

*Grain_193:
XU_193 in out fe_tanh Vc=0.3509534928197412 Qo=1.237430686314188e-13 K=2.62 tau=7.950129547202375e-08 off=-0.2

*Grain_194:
XU_194 in out fe_tanh Vc=1.0067078248214478 Qo=3.549561922230269e-13 K=2.62 tau=9.021685903798106e-08 off=-0.2

*Grain_195:
XU_195 in out fe_tanh Vc=0.6197296077389497 Qo=2.1851112740670647e-13 K=2.62 tau=1.0921604046334205e-07 off=-0.2

*Grain_196:
XU_196 in out fe_tanh Vc=0.08999420702075761 Qo=3.173115402364592e-14 K=2.62 tau=7.709830581837974e-08 off=-0.2

*Grain_197:
XU_197 in out fe_tanh Vc=1.1397609626002885 Qo=4.018695408479664e-13 K=2.62 tau=1.0475288475077843e-07 off=-0.2

*Grain_198:
XU_198 in out fe_tanh Vc=0.24826777189618823 Qo=8.753700010188747e-14 K=2.62 tau=1.059272020835464e-07 off=-0.2

*Grain_199:
XU_199 in out fe_tanh Vc=0.256925847156959 Qo=9.058976014881434e-14 K=2.62 tau=1.1399199746932684e-07 off=-0.2

*Grain_200:
XU_200 in out fe_tanh Vc=0.6760117059879575 Qo=2.383556928230261e-13 K=2.62 tau=1.032885717926576e-07 off=-0.2

*Grain_201:
XU_201 in out fe_tanh Vc=0.7359571966487488 Qo=2.5949193770089765e-13 K=2.62 tau=1.0426668164550712e-07 off=-0.2

*Grain_202:
XU_202 in out fe_tanh Vc=0.5644502874248298 Qo=1.9902013253850109e-13 K=2.62 tau=9.967895468997303e-08 off=-0.2

*Grain_203:
XU_203 in out fe_tanh Vc=0.7664229942511654 Qo=2.7023390596950553e-13 K=2.62 tau=9.203487838401884e-08 off=-0.2

*Grain_204:
XU_204 in out fe_tanh Vc=0.25713326372568723 Qo=9.0662893379355e-14 K=2.62 tau=1.0115969954102201e-07 off=-0.2

*Grain_205:
XU_205 in out fe_tanh Vc=0.09369913315667922 Qo=3.3037477905560277e-14 K=2.62 tau=1.0103942919850472e-07 off=-0.2

*Grain_206:
XU_206 in out fe_tanh Vc=0.35614590603378105 Qo=1.255738671783865e-13 K=2.62 tau=1.1245045470175065e-07 off=-0.2

*Grain_207:
XU_207 in out fe_tanh Vc=0.31494977193170104 Qo=1.1104847804894664e-13 K=2.62 tau=1.1798787934363464e-07 off=-0.2

*Grain_208:
XU_208 in out fe_tanh Vc=0.5023835997581145 Qo=1.771359725321153e-13 K=2.62 tau=9.967727790196817e-08 off=-0.2

*Grain_209:
XU_209 in out fe_tanh Vc=0.23587400743220577 Qo=8.316706939013946e-14 K=2.62 tau=8.293975320391047e-08 off=-0.2

*Grain_210:
XU_210 in out fe_tanh Vc=0.5648006318586446 Qo=1.991436608583644e-13 K=2.62 tau=1.0165240439279178e-07 off=-0.2

*Grain_211:
XU_211 in out fe_tanh Vc=0.18696631694937899 Qo=6.592265432136258e-14 K=2.62 tau=9.837072073418958e-08 off=-0.2

*Grain_212:
XU_212 in out fe_tanh Vc=0.2573076868019383 Qo=9.072439339897874e-14 K=2.62 tau=1.0489078005654931e-07 off=-0.2

*Grain_213:
XU_213 in out fe_tanh Vc=0.734734109025871 Qo=2.59060687923487e-13 K=2.62 tau=1.1699518932358555e-07 off=-0.2

*Grain_214:
XU_214 in out fe_tanh Vc=0.28310666323868994 Qo=9.982088218495312e-14 K=2.62 tau=9.584815130497923e-08 off=-0.2

*Grain_215:
XU_215 in out fe_tanh Vc=0.17331355393907777 Qo=6.110881196117289e-14 K=2.62 tau=1.0109423737596254e-07 off=-0.2

*Grain_216:
XU_216 in out fe_tanh Vc=0.20275213468131228 Qo=7.148859273477224e-14 K=2.62 tau=1.0935168674091519e-07 off=-0.2

*Grain_217:
XU_217 in out fe_tanh Vc=0.9731433337175883 Qo=3.431216522876264e-13 K=2.62 tau=1.0725914730788655e-07 off=-0.2

*Grain_218:
XU_218 in out fe_tanh Vc=0.054861706462336624 Qo=1.9343747952075674e-14 K=2.62 tau=1.0860069844416413e-07 off=-0.2

*Grain_219:
XU_219 in out fe_tanh Vc=0.28995066542116643 Qo=1.0223401625857456e-13 K=2.62 tau=9.597194632931487e-08 off=-0.2

*Grain_220:
XU_220 in out fe_tanh Vc=0.44944149685687423 Qo=1.58469059659518e-13 K=2.62 tau=1.0044212887252138e-07 off=-0.2

*Grain_221:
XU_221 in out fe_tanh Vc=0.35139885300660745 Qo=1.239000986576092e-13 K=2.62 tau=1.0280804955845925e-07 off=-0.2

*Grain_222:
XU_222 in out fe_tanh Vc=0.5653488722155737 Qo=1.99336965514115e-13 K=2.62 tau=1.0864676193714796e-07 off=-0.2

*Grain_223:
XU_223 in out fe_tanh Vc=0.36492045029170234 Qo=1.2866769315399822e-13 K=2.62 tau=8.486571388157162e-08 off=-0.2

*Grain_224:
XU_224 in out fe_tanh Vc=0.330726582212965 Qo=1.1661124051565916e-13 K=2.62 tau=1.0059366654785825e-07 off=-0.2

*Grain_225:
XU_225 in out fe_tanh Vc=0.7702224085289403 Qo=2.7157354552674836e-13 K=2.62 tau=1.247564172839839e-07 off=-0.2

*Grain_226:
XU_226 in out fe_tanh Vc=0.1390007432329587 Qo=4.9010421214211396e-14 K=2.62 tau=1.0376004915120682e-07 off=-0.2

*Grain_227:
XU_227 in out fe_tanh Vc=0.42565832329747755 Qo=1.5008332497317033e-13 K=2.62 tau=1.0563537555357461e-07 off=-0.2

*Grain_228:
XU_228 in out fe_tanh Vc=0.7246404315970663 Qo=2.555017473676296e-13 K=2.62 tau=1.0406861136109312e-07 off=-0.2

*Grain_229:
XU_229 in out fe_tanh Vc=0.47934239452770105 Qo=1.6901184925506874e-13 K=2.62 tau=1.156723766976775e-07 off=-0.2

*Grain_230:
XU_230 in out fe_tanh Vc=0.40026622013302504 Qo=1.4113029607087992e-13 K=2.62 tau=1.0446670066236906e-07 off=-0.2

*Grain_231:
XU_231 in out fe_tanh Vc=0.7926557509695882 Qo=2.7948334181047144e-13 K=2.62 tau=1.0142039964635979e-07 off=-0.2

*Grain_232:
XU_232 in out fe_tanh Vc=0.6441744786625684 Qo=2.271301706767536e-13 K=2.62 tau=8.20565455142899e-08 off=-0.2

*Grain_233:
XU_233 in out fe_tanh Vc=0.2281260045379838 Qo=8.043519273550651e-14 K=2.62 tau=1.1109390198585187e-07 off=-0.2

*Grain_234:
XU_234 in out fe_tanh Vc=0.1345073983401639 Qo=4.742610791678162e-14 K=2.62 tau=1.2115214341141572e-07 off=-0.2

*Grain_235:
XU_235 in out fe_tanh Vc=0.05441314101346417 Qo=1.9185587779115047e-14 K=2.62 tau=1.1161214975976381e-07 off=-0.2

*Grain_236:
XU_236 in out fe_tanh Vc=1.0343396453069011 Qo=3.6469892545890534e-13 K=2.62 tau=9.508259651687509e-08 off=-0.2

*Grain_237:
XU_237 in out fe_tanh Vc=1.0838521312363558 Qo=3.821565860031973e-13 K=2.62 tau=1.09247034681976e-07 off=-0.2

*Grain_238:
XU_238 in out fe_tanh Vc=0.3772521735641783 Qo=1.3301574869545832e-13 K=2.62 tau=1.1337881373665854e-07 off=-0.2

*Grain_239:
XU_239 in out fe_tanh Vc=0.5128598458144668 Qo=1.8082980337088308e-13 K=2.62 tau=9.81275491543143e-08 off=-0.2

*Grain_240: