* Multi-domian SPICE model
.subckt fe_tanh_md in out

*Grain_0:
XU_0 in out fe_tanh Vc=0.5106471534729239 Qo=3.805490134297339e-13 K=2.62 tau=1.0962162905768435e-07 off=-0.1

*Grain_1:
XU_1 in out fe_tanh Vc=0.034509040764962695 Qo=1.1459513068878223e-14 K=2.62 tau=9.91011316205373e-08 off=-0.1

*Grain_2:
XU_2 in out fe_tanh Vc=0.04557128991269804 Qo=1.6449478293127555e-14 K=2.62 tau=8.923007758275212e-08 off=-0.1

*Grain_3:
XU_3 in out fe_tanh Vc=0.3545316972249254 Qo=2.3681270637747964e-13 K=2.62 tau=1.0462161864070541e-07 off=-0.1

*Grain_4:
XU_4 in out fe_tanh Vc=0.6910221531192295 Qo=5.638881550703724e-13 K=2.62 tau=1.141482876358601e-07 off=-0.1

*Grain_5:
XU_5 in out fe_tanh Vc=0.7225984286917916 Qo=5.976122994880839e-13 K=2.62 tau=1.0290359761894417e-07 off=-0.1

*Grain_6:
XU_6 in out fe_tanh Vc=0.5959868335363174 Qo=4.652228907559991e-13 K=2.62 tau=1.036819869496836e-07 off=-0.1

*Grain_7:
XU_7 in out fe_tanh Vc=0.7201624086363843 Qo=5.949945572307296e-13 K=2.62 tau=9.176678706007163e-08 off=-0.1

*Grain_8:
XU_8 in out fe_tanh Vc=0.254684910184114 Qo=1.5404854081511765e-13 K=2.62 tau=1.0424457950095651e-07 off=-0.1

*Grain_9:
XU_9 in out fe_tanh Vc=0.6970744996229458 Qo=5.703170624808026e-13 K=2.62 tau=9.856287555852747e-08 off=-0.1

*Grain_10:
XU_10 in out fe_tanh Vc=0.4470904268087553 Qo=3.2016023673948897e-13 K=2.62 tau=9.964304020146299e-08 off=-0.1

*Grain_11:
XU_11 in out fe_tanh Vc=0.6720770481134002 Qo=5.438738699029444e-13 K=2.62 tau=1.0898103961690038e-07 off=-0.1

*Grain_12:
XU_12 in out fe_tanh Vc=0.6636840802412625 Qo=5.350609187113209e-13 K=2.62 tau=1.0304556030489124e-07 off=-0.1

*Grain_13:
XU_13 in out fe_tanh Vc=0.45819089588329875 Qo=3.3053222168780654e-13 K=2.62 tau=9.231104716707023e-08 off=-0.1

*Grain_14:
XU_14 in out fe_tanh Vc=0.471004108946963 Qo=3.4259854565084473e-13 K=2.62 tau=1.0857346216752861e-07 off=-0.1

*Grain_15:
XU_15 in out fe_tanh Vc=0.3381257663822988 Qo=2.2266664078716991e-13 K=2.62 tau=1.0766515518816212e-07 off=-0.1

*Grain_16:
XU_16 in out fe_tanh Vc=0.0071711871063316335 Qo=1.4863523723308907e-15 K=2.62 tau=1.2041390848709714e-07 off=-0.1

*Grain_17:
XU_17 in out fe_tanh Vc=0.6360474315490521 Qo=5.062788262992564e-13 K=2.62 tau=9.216257641479182e-08 off=-0.1

*Grain_18:
XU_18 in out fe_tanh Vc=0.2780152324171137 Qo=1.7264045796190667e-13 K=2.62 tau=9.687514163380913e-08 off=-0.1

*Grain_19:
XU_19 in out fe_tanh Vc=0.41215681862516657 Qo=2.880279585403567e-13 K=2.62 tau=1.0408635749823978e-07 off=-0.1

*Grain_20:
XU_20 in out fe_tanh Vc=0.23930535109391013 Qo=1.420664549274601e-13 K=2.62 tau=1.0554550933902753e-07 off=-0.1

*Grain_21:
XU_21 in out fe_tanh Vc=-0.30129383207809757 Qo=1.9166407781663745e-13 K=2.62 tau=9.461463435418202e-08 off=-0.1

*Grain_22:
XU_22 in out fe_tanh Vc=0.4937446574384348 Qo=3.642558561192344e-13 K=2.62 tau=1.0107537550161913e-07 off=-0.1

*Grain_23:
XU_23 in out fe_tanh Vc=0.43916762941554255 Qo=3.128043817678901e-13 K=2.62 tau=1.0068164513465239e-07 off=-0.1

*Grain_24:
XU_24 in out fe_tanh Vc=0.36738083049759446 Qo=2.4803036335041665e-13 K=2.62 tau=1.008253446087289e-07 off=-0.1

*Grain_25:
XU_25 in out fe_tanh Vc=0.38274222831361043 Qo=2.615963654482451e-13 K=2.62 tau=9.9705635140268e-08 off=-0.1

*Grain_26:
XU_26 in out fe_tanh Vc=0.5490116403697967 Qo=4.181281711288716e-13 K=2.62 tau=9.317570821684333e-08 off=-0.1

*Grain_27:
XU_27 in out fe_tanh Vc=0.05186576483463701 Qo=1.9462491368663226e-14 K=2.62 tau=1.1257801098867917e-07 off=-0.1

*Grain_28:
XU_28 in out fe_tanh Vc=0.408211939096291 Qo=2.844492700927109e-13 K=2.62 tau=1.0514642949720805e-07 off=-0.1

*Grain_29:
XU_29 in out fe_tanh Vc=0.421386109440304 Qo=2.964406047003905e-13 K=2.62 tau=9.64001545178759e-08 off=-0.1

*Grain_30:
XU_30 in out fe_tanh Vc=0.12095209105127447 Qo=5.851278987812875e-14 K=2.62 tau=1.0012621988355065e-07 off=-0.1

*Grain_31:
XU_31 in out fe_tanh Vc=0.3393409321019454 Qo=2.2370749429479878e-13 K=2.62 tau=8.816105140192096e-08 off=-0.1

*Grain_32:
XU_32 in out fe_tanh Vc=0.7478763994936585 Qo=6.249311711634962e-13 K=2.62 tau=1.116181320690554e-07 off=-0.1

*Grain_33:
XU_33 in out fe_tanh Vc=0.6657522048892317 Qo=5.37229445024262e-13 K=2.62 tau=9.257895529114622e-08 off=-0.1

*Grain_34:
XU_34 in out fe_tanh Vc=0.9017248813139058 Qo=7.969841413889351e-13 K=2.62 tau=9.14837823010427e-08 off=-0.1

*Grain_35:
XU_35 in out fe_tanh Vc=0.4720883472786169 Qo=3.436241474695101e-13 K=2.62 tau=9.195110658638605e-08 off=-0.1

*Grain_36:
XU_36 in out fe_tanh Vc=0.666421816196064 Qo=5.379319975940025e-13 K=2.62 tau=9.804889197467341e-08 off=-0.1

*Grain_37:
XU_37 in out fe_tanh Vc=0.05003088982747039 Qo=1.8572189473609665e-14 K=2.62 tau=1.0640903148106343e-07 off=-0.1

*Grain_38:
XU_38 in out fe_tanh Vc=0.8923700711311644 Qo=7.862522576852245e-13 K=2.62 tau=1.016281533436246e-07 off=-0.1

*Grain_39:
XU_39 in out fe_tanh Vc=0.8737171443397338 Qo=7.649543618743388e-13 K=2.62 tau=1.0743320796084023e-07 off=-0.1

*Grain_40:
XU_40 in out fe_tanh Vc=0.43740460423298233 Qo=3.1117289884917385e-13 K=2.62 tau=1.031638649828301e-07 off=-0.1

*Grain_41:
XU_41 in out fe_tanh Vc=-0.15494297277402924 Qo=8.073779044534385e-14 K=2.62 tau=8.842422459432844e-08 off=-0.1

*Grain_42:
XU_42 in out fe_tanh Vc=0.21218677617224016 Qo=1.2150306102177873e-13 K=2.62 tau=1.100408544332784e-07 off=-0.1

*Grain_43:
XU_43 in out fe_tanh Vc=-0.03244478511327947 Qo=1.0576495359169422e-14 K=2.62 tau=7.399959160493193e-08 off=-0.1

*Grain_44:
XU_44 in out fe_tanh Vc=0.017347890324461934 Qo=4.686774718753001e-15 K=2.62 tau=9.791343613337152e-08 off=-0.1

*Grain_45:
XU_45 in out fe_tanh Vc=0.2724547395409157 Qo=1.6816518435972167e-13 K=2.62 tau=1.0145021739416984e-07 off=-0.1

*Grain_46:
XU_46 in out fe_tanh Vc=0.7019020654285337 Qo=5.75457012753123e-13 K=2.62 tau=9.594325678713977e-08 off=-0.1

*Grain_47:
XU_47 in out fe_tanh Vc=0.5124398670614696 Qo=3.822867038234443e-13 K=2.62 tau=9.396458462281162e-08 off=-0.1

*Grain_48:
XU_48 in out fe_tanh Vc=-0.450991490552784 Qo=3.2379658365911854e-13 K=2.62 tau=1.1669820137539725e-07 off=-0.1

*Grain_49:
XU_49 in out fe_tanh Vc=0.22556869902261673 Qo=1.315575859224852e-13 K=2.62 tau=9.871523411867602e-08 off=-0.1

*Grain_50:
XU_50 in out fe_tanh Vc=0.1819111425916337 Qo=9.946504939229334e-14 K=2.62 tau=8.30460839358074e-08 off=-0.1

*Grain_51:
XU_51 in out fe_tanh Vc=0.7704018513606201 Qo=6.495101220145994e-13 K=2.62 tau=9.048598686956934e-08 off=-0.1

*Grain_52:
XU_52 in out fe_tanh Vc=0.3805813910427512 Qo=2.596780398830814e-13 K=2.62 tau=1.0674961482899544e-07 off=-0.1

*Grain_53:
XU_53 in out fe_tanh Vc=0.7142840527825952 Qo=5.886886339180354e-13 K=2.62 tau=1.0588734945573379e-07 off=-0.1

*Grain_54:
XU_54 in out fe_tanh Vc=0.4566419164438684 Qo=3.2908032440151295e-13 K=2.62 tau=1.0629318962561583e-07 off=-0.1

*Grain_55:
XU_55 in out fe_tanh Vc=0.3310621965040311 Qo=2.1663861984505103e-13 K=2.62 tau=1.0753997045451263e-07 off=-0.1

*Grain_56:
XU_56 in out fe_tanh Vc=0.3818755147649882 Qo=2.608265322394648e-13 K=2.62 tau=1.108091839825998e-07 off=-0.1

*Grain_57:
XU_57 in out fe_tanh Vc=0.5784557981917602 Qo=4.47511955945116e-13 K=2.62 tau=9.912137858866086e-08 off=-0.1

*Grain_58:
XU_58 in out fe_tanh Vc=-0.025089136780016175 Qo=7.571550884549433e-15 K=2.62 tau=8.895690858320637e-08 off=-0.1

*Grain_59:
XU_59 in out fe_tanh Vc=0.5098087742035972 Qo=3.7973699373911815e-13 K=2.62 tau=9.661849955937383e-08 off=-0.1

*Grain_60:
XU_60 in out fe_tanh Vc=0.1424608419136431 Qo=7.23864984494252e-14 K=2.62 tau=1.1706082869245841e-07 off=-0.1

*Grain_61:
XU_61 in out fe_tanh Vc=0.0612718974280535 Qo=2.417091765196076e-14 K=2.62 tau=1.0824697547045302e-07 off=-0.1

*Grain_62:
XU_62 in out fe_tanh Vc=0.21740328355840766 Qo=1.2540052057047733e-13 K=2.62 tau=1.0680771903477749e-07 off=-0.1

*Grain_63:
XU_63 in out fe_tanh Vc=0.2378587353431391 Qo=1.409510279642261e-13 K=2.62 tau=1.0146103672492908e-07 off=-0.1

*Grain_64:
XU_64 in out fe_tanh Vc=0.321699201795904 Qo=2.0870765995108585e-13 K=2.62 tau=8.658225473720289e-08 off=-0.1

*Grain_65:
XU_65 in out fe_tanh Vc=0.6431515834082223 Qo=5.136422699298911e-13 K=2.62 tau=1.0265531072371162e-07 off=-0.1

*Grain_66:
XU_66 in out fe_tanh Vc=0.00247966737237576 Qo=3.7373594247647703e-16 K=2.62 tau=1.1320510271091626e-07 off=-0.1

*Grain_67:
XU_67 in out fe_tanh Vc=0.8225184717156263 Qo=7.072008407396604e-13 K=2.62 tau=1.1203364106599983e-07 off=-0.1

*Grain_68:
XU_68 in out fe_tanh Vc=0.5765250764220655 Qo=4.4557116010410524e-13 K=2.62 tau=9.376664129811582e-08 off=-0.1

*Grain_69:
XU_69 in out fe_tanh Vc=-0.1481856371461897 Qo=7.619059335597101e-14 K=2.62 tau=1.0455685901786864e-07 off=-0.1

*Grain_70:
XU_70 in out fe_tanh Vc=0.17727512716107424 Qo=9.618238848980472e-14 K=2.62 tau=1.0540440911680003e-07 off=-0.1

*Grain_71:
XU_71 in out fe_tanh Vc=0.5067060961067853 Qo=3.7673535471405506e-13 K=2.62 tau=1.0116164659801462e-07 off=-0.1

*Grain_72:
XU_72 in out fe_tanh Vc=0.7938945597127962 Qo=6.753751610050384e-13 K=2.62 tau=1.0047345052059981e-07 off=-0.1

*Grain_73:
XU_73 in out fe_tanh Vc=0.47675346461988927 Qo=3.480450212215951e-13 K=2.62 tau=1.0139377560259903e-07 off=-0.1

*Grain_74:
XU_74 in out fe_tanh Vc=0.4736722729126591 Qo=3.4512368340169357e-13 K=2.62 tau=1.0245099081328611e-07 off=-0.1

*Grain_75:
XU_75 in out fe_tanh Vc=0.5415703600366594 Qo=4.107757187564698e-13 K=2.62 tau=9.65312200888537e-08 off=-0.1

*Grain_76:
XU_76 in out fe_tanh Vc=0.942425841819516 Qo=8.440627849497723e-13 K=2.62 tau=8.172452797172458e-08 off=-0.1

*Grain_77:
XU_77 in out fe_tanh Vc=0.43503756840059254 Qo=3.089855730284756e-13 K=2.62 tau=9.74552729855123e-08 off=-0.1

*Grain_78:
XU_78 in out fe_tanh Vc=-0.04527334979351394 Qo=1.630980724900958e-14 K=2.62 tau=9.251894974794175e-08 off=-0.1

*Grain_79:
XU_79 in out fe_tanh Vc=0.13070275680421162 Qo=6.47177757286249e-14 K=2.62 tau=1.0571172131179094e-07 off=-0.1

*Grain_80:
XU_80 in out fe_tanh Vc=0.28534112617609386 Qo=1.7857764553593314e-13 K=2.62 tau=9.869243615384484e-08 off=-0.1

*Grain_81:
XU_81 in out fe_tanh Vc=-0.19079366045591006 Qo=1.0582457493000495e-13 K=2.62 tau=1.0509717842041741e-07 off=-0.1

*Grain_82:
XU_82 in out fe_tanh Vc=0.2558906173522638 Qo=1.5499728149067098e-13 K=2.62 tau=1.0588946278455361e-07 off=-0.1

*Grain_83:
XU_83 in out fe_tanh Vc=-0.010946958316894961 Qo=2.5759350838234927e-15 K=2.62 tau=1.0794306720460618e-07 off=-0.1

*Grain_84:
XU_84 in out fe_tanh Vc=0.6347721648626482 Qo=5.049596162999336e-13 K=2.62 tau=9.446563270059917e-08 off=-0.1

*Grain_85:
XU_85 in out fe_tanh Vc=0.5656499510859071 Qo=4.3467582844138264e-13 K=2.62 tau=1.0768163137066455e-07 off=-0.1

*Grain_86:
XU_86 in out fe_tanh Vc=0.13622668202326127 Qo=6.829583875616517e-14 K=2.62 tau=1.0288828652555213e-07 off=-0.1

*Grain_87:
XU_87 in out fe_tanh Vc=0.9350634662375953 Qo=8.355007156092995e-13 K=2.62 tau=1.1357601102961895e-07 off=-0.1

*Grain_88:
XU_88 in out fe_tanh Vc=0.6916807357649317 Qo=5.645868968378467e-13 K=2.62 tau=1.1183391442234295e-07 off=-0.1

*Grain_89:
XU_89 in out fe_tanh Vc=0.4983282157551743 Qo=3.686578889093163e-13 K=2.62 tau=9.295220630550605e-08 off=-0.1

*Grain_90:
XU_90 in out fe_tanh Vc=0.4914898768853065 Qo=3.6209486066760153e-13 K=2.62 tau=1.1815182736774631e-07 off=-0.1

*Grain_91:
XU_91 in out fe_tanh Vc=-0.025487593339758696 Qo=7.728245122246246e-15 K=2.62 tau=1.0140795083875405e-07 off=-0.1

*Grain_92:
XU_92 in out fe_tanh Vc=0.447221906168929 Qo=3.2028263975344404e-13 K=2.62 tau=1.21432463129927e-07 off=-0.1

*Grain_93:
XU_93 in out fe_tanh Vc=0.3945797302305776 Qo=2.7216270546791403e-13 K=2.62 tau=9.030667424451035e-08 off=-0.1

*Grain_94:
XU_94 in out fe_tanh Vc=-0.19030779768582096 Qo=1.0547437702442191e-13 K=2.62 tau=8.265864604792056e-08 off=-0.1

*Grain_95:
XU_95 in out fe_tanh Vc=0.6852459108473695 Qo=5.577682623885562e-13 K=2.62 tau=1.072321340592539e-07 off=-0.1

*Grain_96:
XU_96 in out fe_tanh Vc=0.4523552673089687 Qo=3.250700496776519e-13 K=2.62 tau=9.015241398475668e-08 off=-0.1

*Grain_97:
XU_97 in out fe_tanh Vc=0.5857621838135446 Qo=4.548740277037931e-13 K=2.62 tau=1.0908597866655548e-07 off=-0.1

*Grain_98:
XU_98 in out fe_tanh Vc=0.896910909294607 Qo=7.914573358249748e-13 K=2.62 tau=8.943076645010305e-08 off=-0.1

*Grain_99:
XU_99 in out fe_tanh Vc=0.5597103703427955 Qo=4.287516161796279e-13 K=2.62 tau=1.0655768638275021e-07 off=-0.1

*Grain_100:
XU_100 in out fe_tanh Vc=0.33899805592511967 Qo=2.2341368934706832e-13 K=2.62 tau=1.1139282399816895e-07 off=-0.1

*Grain_101:
XU_101 in out fe_tanh Vc=0.7000423107591036 Qo=5.734756562259294e-13 K=2.62 tau=1.0723246595777235e-07 off=-0.1

*Grain_102:
XU_102 in out fe_tanh Vc=0.8102748788655899 Qo=6.935463610641415e-13 K=2.62 tau=1.0213578673307348e-07 off=-0.1

*Grain_103:
XU_103 in out fe_tanh Vc=0.5930916056195481 Qo=4.62287042646334e-13 K=2.62 tau=1.0368185718280751e-07 off=-0.1

*Grain_104:
XU_104 in out fe_tanh Vc=0.8951268840463815 Qo=7.894113958182006e-13 K=2.62 tau=1.0136879801484785e-07 off=-0.1

*Grain_105:
XU_105 in out fe_tanh Vc=0.4679276426726038 Qo=3.3969231574750903e-13 K=2.62 tau=1.0928865928363543e-07 off=-0.1

*Grain_106:
XU_106 in out fe_tanh Vc=0.43474363877765904 Qo=3.087142078453302e-13 K=2.62 tau=9.384740543063667e-08 off=-0.1

*Grain_107:
XU_107 in out fe_tanh Vc=0.24884510414934696 Qo=1.4947248038620055e-13 K=2.62 tau=1.0258270195035354e-07 off=-0.1

*Grain_108:
XU_108 in out fe_tanh Vc=0.18006433362389854 Qo=9.815431985146824e-14 K=2.62 tau=1.0091435131168373e-07 off=-0.1

*Grain_109:
XU_109 in out fe_tanh Vc=0.4206961733938076 Qo=2.9580978833964235e-13 K=2.62 tau=1.0689565381549604e-07 off=-0.1

*Grain_110:
XU_110 in out fe_tanh Vc=0.7291586732901989 Qo=6.046750794104524e-13 K=2.62 tau=9.756889073612524e-08 off=-0.1

*Grain_111:
XU_111 in out fe_tanh Vc=-0.0902028794157701 Qo=3.99613297997327e-14 K=2.62 tau=1.2048320267199017e-07 off=-0.1

*Grain_112:
XU_112 in out fe_tanh Vc=0.3628930630824013 Qo=2.4409881823619206e-13 K=2.62 tau=1.1063044937997449e-07 off=-0.1

*Grain_113:
XU_113 in out fe_tanh Vc=-0.10249229103330793 Qo=4.717935202801642e-14 K=2.62 tau=1.170366741381858e-07 off=-0.1

*Grain_114:
XU_114 in out fe_tanh Vc=0.6078628223901854 Qo=4.77310147359191e-13 K=2.62 tau=1.0000206661769974e-07 off=-0.1

*Grain_115:
XU_115 in out fe_tanh Vc=0.5017609673922581 Qo=3.719626615524179e-13 K=2.62 tau=9.720301719966569e-08 off=-0.1

*Grain_116:
XU_116 in out fe_tanh Vc=0.5308386431715857 Qo=4.0022544853203876e-13 K=2.62 tau=6.63149769393353e-08 off=-0.1

*Grain_117:
XU_117 in out fe_tanh Vc=0.17589162566890157 Qo=9.520771061802193e-14 K=2.62 tau=1.1441278831850239e-07 off=-0.1

*Grain_118:
XU_118 in out fe_tanh Vc=0.757938432108358 Qo=6.358834445802485e-13 K=2.62 tau=9.720126777193424e-08 off=-0.1

*Grain_119:
XU_119 in out fe_tanh Vc=0.41921620738313886 Qo=2.9445768572337126e-13 K=2.62 tau=1.00828856452347e-07 off=-0.1

*Grain_120:
XU_120 in out fe_tanh Vc=0.5047180714031426 Qo=3.748149645184187e-13 K=2.62 tau=9.5536305082145e-08 off=-0.1

*Grain_121:
XU_121 in out fe_tanh Vc=0.5401974711571186 Qo=4.09422514529971e-13 K=2.62 tau=8.587136554389206e-08 off=-0.1

*Grain_122:
XU_122 in out fe_tanh Vc=0.009397216326906543 Qo=2.1122844522594488e-15 K=2.62 tau=1.0127253167949334e-07 off=-0.1

*Grain_123:
XU_123 in out fe_tanh Vc=-0.010358219895379217 Qo=2.3973093256382256e-15 K=2.62 tau=9.112243697979203e-08 off=-0.1

*Grain_124:
XU_124 in out fe_tanh Vc=0.4885899403945707 Qo=3.593199145695662e-13 K=2.62 tau=8.711890381079436e-08 off=-0.1

*Grain_125:
XU_125 in out fe_tanh Vc=1.021907254157846 Qo=9.377527299304386e-13 K=2.62 tau=9.949579327041094e-08 off=-0.1

*Grain_126:
XU_126 in out fe_tanh Vc=0.7216237533049167 Qo=5.965645970378946e-13 K=2.62 tau=1.1303395686668656e-07 off=-0.1

*Grain_127:
XU_127 in out fe_tanh Vc=0.4205573239823073 Qo=2.9568287424038233e-13 K=2.62 tau=1.1010076822553705e-07 off=-0.1

*Grain_128:
XU_128 in out fe_tanh Vc=0.6884135163473615 Qo=5.611224124828828e-13 K=2.62 tau=1.054251670218883e-07 off=-0.1

*Grain_129:
XU_129 in out fe_tanh Vc=0.1815899094824964 Qo=9.923677365456706e-14 K=2.62 tau=9.790821738166778e-08 off=-0.1

*Grain_130:
XU_130 in out fe_tanh Vc=0.5073124758960514 Qo=3.7732155530127204e-13 K=2.62 tau=1.0158800512554376e-07 off=-0.1

*Grain_131:
XU_131 in out fe_tanh Vc=0.17888922832694848 Qo=9.732241077006769e-14 K=2.62 tau=9.630744980021036e-08 off=-0.1

*Grain_132:
XU_132 in out fe_tanh Vc=0.08920538104884596 Qo=3.938780497865969e-14 K=2.62 tau=1.1768102870666249e-07 off=-0.1

*Grain_133:
XU_133 in out fe_tanh Vc=0.8363264765178651 Qo=7.226733010960937e-13 K=2.62 tau=8.776114504558955e-08 off=-0.1

*Grain_134:
XU_134 in out fe_tanh Vc=0.13699398133749663 Qo=6.879634156217595e-14 K=2.62 tau=1.0523092700221374e-07 off=-0.1

*Grain_135:
XU_135 in out fe_tanh Vc=-0.09297057779739942 Qo=4.1562589656314466e-14 K=2.62 tau=1.0288810230554641e-07 off=-0.1

*Grain_136:
XU_136 in out fe_tanh Vc=0.42972165214000174 Qo=3.0408627474786606e-13 K=2.62 tau=9.152237508581679e-08 off=-0.1

*Grain_137:
XU_137 in out fe_tanh Vc=0.3863088353654607 Qo=2.6476979786804105e-13 K=2.62 tau=8.811710350765278e-08 off=-0.1

*Grain_138:
XU_138 in out fe_tanh Vc=0.059296634476322385 Qo=2.3162875265165097e-14 K=2.62 tau=1.0895194145460112e-07 off=-0.1

*Grain_139:
XU_139 in out fe_tanh Vc=-0.024035841434501937 Qo=7.160948325628817e-15 K=2.62 tau=8.719963362499665e-08 off=-0.1

*Grain_140:
XU_140 in out fe_tanh Vc=0.5083230787710873 Qo=3.782989942646335e-13 K=2.62 tau=9.751611789479793e-08 off=-0.1

*Grain_141:
XU_141 in out fe_tanh Vc=0.31767774606612387 Qo=2.0532235694331725e-13 K=2.62 tau=9.767264114623967e-08 off=-0.1

*Grain_142:
XU_142 in out fe_tanh Vc=0.401912589165152 Qo=2.787561792510223e-13 K=2.62 tau=9.814837585478562e-08 off=-0.1

*Grain_143:
XU_143 in out fe_tanh Vc=0.5674182575954564 Qo=4.364431765074826e-13 K=2.62 tau=1.0621745606459102e-07 off=-0.1

*Grain_144:
XU_144 in out fe_tanh Vc=0.7840501086859011 Qo=6.64508247599518e-13 K=2.62 tau=1.0186100905519949e-07 off=-0.1

*Grain_145:
XU_145 in out fe_tanh Vc=0.9758340816264032 Qo=8.831656864254698e-13 K=2.62 tau=9.131868177869574e-08 off=-0.1

*Grain_146:
XU_146 in out fe_tanh Vc=0.19173629568578707 Qo=1.0650476607515348e-13 K=2.62 tau=9.884844939052234e-08 off=-0.1

*Grain_147:
XU_147 in out fe_tanh Vc=-0.17677362352724624 Qo=9.582881415122571e-14 K=2.62 tau=1.0710087660920742e-07 off=-0.1

*Grain_148:
XU_148 in out fe_tanh Vc=0.07430816791835787 Qo=3.105996273998303e-14 K=2.62 tau=9.951451101812727e-08 off=-0.1

*Grain_149:
XU_149 in out fe_tanh Vc=0.47029477300927974 Qo=3.4192795424748487e-13 K=2.62 tau=1.0464775831117123e-07 off=-0.1

*Grain_150:
XU_150 in out fe_tanh Vc=0.4200148723171625 Qo=2.9518717151052133e-13 K=2.62 tau=1.044707171887752e-07 off=-0.1

*Grain_151:
XU_151 in out fe_tanh Vc=0.6085128566346925 Qo=4.779738053294332e-13 K=2.62 tau=9.424725665861305e-08 off=-0.1

*Grain_152:
XU_152 in out fe_tanh Vc=0.5544358620847788 Qo=4.2350653687790247e-13 K=2.62 tau=1.1527229293393959e-07 off=-0.1

*Grain_153:
XU_153 in out fe_tanh Vc=0.09370602834396019 Qo=4.1990514964541e-14 K=2.62 tau=9.143366949046981e-08 off=-0.1

*Grain_154:
XU_154 in out fe_tanh Vc=0.26484357859112906 Qo=1.6208383065115738e-13 K=2.62 tau=9.81943419531141e-08 off=-0.1

*Grain_155:
XU_155 in out fe_tanh Vc=0.30983308128557374 Qo=1.987556725241189e-13 K=2.62 tau=1.0016318162276431e-07 off=-0.1

*Grain_156:
XU_156 in out fe_tanh Vc=0.5019915719778308 Qo=3.7218491253993615e-13 K=2.62 tau=1.062285755326906e-07 off=-0.1

*Grain_157:
XU_157 in out fe_tanh Vc=0.27278656178358407 Qo=1.6843148356866535e-13 K=2.62 tau=1.1439792508644937e-07 off=-0.1

*Grain_158:
XU_158 in out fe_tanh Vc=0.855513030637882 Qo=7.443000152823722e-13 K=2.62 tau=1.0043562383178701e-07 off=-0.1

*Grain_159:
XU_159 in out fe_tanh Vc=0.656544367455827 Qo=5.275901930798566e-13 K=2.62 tau=9.149648603807583e-08 off=-0.1

*Grain_160:
XU_160 in out fe_tanh Vc=0.38970127188217046 Qo=2.677964284518423e-13 K=2.62 tau=7.974306919700541e-08 off=-0.1

*Grain_161:
XU_161 in out fe_tanh Vc=0.1371338188469765 Qo=6.888764715170475e-14 K=2.62 tau=1.1409700234648272e-07 off=-0.1

*Grain_162:
XU_162 in out fe_tanh Vc=0.359810586574477 Qo=2.414068164895271e-13 K=2.62 tau=1.0441111536967083e-07 off=-0.1

*Grain_163:
XU_163 in out fe_tanh Vc=0.3045934404986714 Qo=1.9439725172001643e-13 K=2.62 tau=8.061679289117395e-08 off=-0.1

*Grain_164:
XU_164 in out fe_tanh Vc=0.19959504802326444 Qo=1.1221427328966434e-13 K=2.62 tau=9.602795704832882e-08 off=-0.1

*Grain_165:
XU_165 in out fe_tanh Vc=0.7228861765344825 Qo=5.979216877843816e-13 K=2.62 tau=1.1198620472288942e-07 off=-0.1

*Grain_166:
XU_166 in out fe_tanh Vc=0.5431046213794501 Qo=4.122891997215662e-13 K=2.62 tau=1.0093160754202054e-07 off=-0.1

*Grain_167:
XU_167 in out fe_tanh Vc=-0.29327268992857014 Qo=1.850574271150648e-13 K=2.62 tau=9.474026355825484e-08 off=-0.1

*Grain_168:
XU_168 in out fe_tanh Vc=0.3818844880233112 Qo=2.6083449979332246e-13 K=2.62 tau=9.522382286510128e-08 off=-0.1

*Grain_169:
XU_169 in out fe_tanh Vc=-0.037547952948952745 Qo=1.2788380656237671e-14 K=2.62 tau=1.1077650556198445e-07 off=-0.1

*Grain_170:
XU_170 in out fe_tanh Vc=0.48473266327233944 Qo=3.5563654403575365e-13 K=2.62 tau=8.544724903421793e-08 off=-0.1

*Grain_171:
XU_171 in out fe_tanh Vc=0.023346804351490336 Qo=6.895235243267258e-15 K=2.62 tau=1.1176112228321882e-07 off=-0.1

*Grain_172:
XU_172 in out fe_tanh Vc=0.36617488256667385 Qo=2.4697245946832445e-13 K=2.62 tau=1.0261852949811092e-07 off=-0.1

*Grain_173:
XU_173 in out fe_tanh Vc=0.9422872097298816 Qo=8.439013769316881e-13 K=2.62 tau=1.0541525766772923e-07 off=-0.1

*Grain_174:
XU_174 in out fe_tanh Vc=-0.27977781678520686 Qo=1.740646857526942e-13 K=2.62 tau=1.194847147348393e-07 off=-0.1

*Grain_175:
XU_175 in out fe_tanh Vc=0.5088363494722202 Qo=3.787956448402421e-13 K=2.62 tau=1.1189014310305518e-07 off=-0.1

*Grain_176:
XU_176 in out fe_tanh Vc=0.46228607053071374 Qo=3.343778186733792e-13 K=2.62 tau=1.044821793721905e-07 off=-0.1

*Grain_177:
XU_177 in out fe_tanh Vc=0.24396703426665994 Qo=1.4567462248568032e-13 K=2.62 tau=1.0036982511382698e-07 off=-0.1

*Grain_178:
XU_178 in out fe_tanh Vc=0.5140818048558218 Qo=3.8387984719718563e-13 K=2.62 tau=8.47883020484051e-08 off=-0.1

*Grain_179:
XU_179 in out fe_tanh Vc=0.0899687003865195 Qo=3.982651374128977e-14 K=2.62 tau=9.063032802206571e-08 off=-0.1

*Grain_180:
XU_180 in out fe_tanh Vc=0.5442274006460903 Qo=4.133975850938129e-13 K=2.62 tau=9.540822361682133e-08 off=-0.1

*Grain_181:
XU_181 in out fe_tanh Vc=0.7207468034410154 Qo=5.956223048773381e-13 K=2.62 tau=8.718236969106514e-08 off=-0.1

*Grain_182:
XU_182 in out fe_tanh Vc=0.517784598995164 Qo=3.874782036124355e-13 K=2.62 tau=9.192117846439834e-08 off=-0.1

*Grain_183:
XU_183 in out fe_tanh Vc=0.253899602766394 Qo=1.5343132596467792e-13 K=2.62 tau=1.1414174043999512e-07 off=-0.1

*Grain_184:
XU_184 in out fe_tanh Vc=0.7849370992750797 Qo=6.654856931907745e-13 K=2.62 tau=9.227853755093313e-08 off=-0.1

*Grain_185:
XU_185 in out fe_tanh Vc=0.26434363701788705 Qo=1.6168619088830023e-13 K=2.62 tau=1.0607752966817709e-07 off=-0.1

*Grain_186:
XU_186 in out fe_tanh Vc=0.5327117352838001 Qo=4.020623009819454e-13 K=2.62 tau=1.0754236908074748e-07 off=-0.1

*Grain_187:
XU_187 in out fe_tanh Vc=0.6778788769919258 Qo=5.499853763676185e-13 K=2.62 tau=1.1885807414670222e-07 off=-0.1

*Grain_188:
XU_188 in out fe_tanh Vc=0.34029306425255246 Qo=2.2452382755756622e-13 K=2.62 tau=9.779988930723657e-08 off=-0.1

*Grain_189:
XU_189 in out fe_tanh Vc=0.5196508167877841 Qo=3.8929471599011855e-13 K=2.62 tau=9.228981166626394e-08 off=-0.1

*Grain_190:
XU_190 in out fe_tanh Vc=0.28144776385797166 Qo=1.754165453036394e-13 K=2.62 tau=8.709201859462091e-08 off=-0.1

*Grain_191:
XU_191 in out fe_tanh Vc=0.9736270644740651 Qo=8.805699067472741e-13 K=2.62 tau=9.804624086840182e-08 off=-0.1

*Grain_192:
XU_192 in out fe_tanh Vc=0.6558301261978827 Qo=5.268441738412314e-13 K=2.62 tau=8.650153633985384e-08 off=-0.1

*Grain_193:
XU_193 in out fe_tanh Vc=0.6487261671953779 Qo=5.194374422459438e-13 K=2.62 tau=8.473407387185205e-08 off=-0.1

*Grain_194:
XU_194 in out fe_tanh Vc=0.29201625767858885 Qo=1.8402742559358731e-13 K=2.62 tau=8.807363334611642e-08 off=-0.1

*Grain_195:
XU_195 in out fe_tanh Vc=0.25769701894808705 Qo=1.5642120366213937e-13 K=2.62 tau=1.037620887518694e-07 off=-0.1

*Grain_196:
XU_196 in out fe_tanh Vc=-0.38499231813851853 Qo=2.635973826139327e-13 K=2.62 tau=1.0805290614195228e-07 off=-0.1

*Grain_197:
XU_197 in out fe_tanh Vc=-0.026310183776539542 Qo=8.05405250658713e-15 K=2.62 tau=8.813041999646287e-08 off=-0.1

*Grain_198:
XU_198 in out fe_tanh Vc=0.28373616028542104 Qo=1.7727296307002877e-13 K=2.62 tau=9.579890064845068e-08 off=-0.1

*Grain_199:
XU_199 in out fe_tanh Vc=-0.2706855046348645 Qo=1.6674695426480347e-13 K=2.62 tau=1.0114782177246584e-07 off=-0.1

*Grain_200:
XU_200 in out fe_tanh Vc=0.4929538765781798 Qo=3.6349762911379947e-13 K=2.62 tau=1.047101561133019e-07 off=-0.1

*Grain_201:
XU_201 in out fe_tanh Vc=0.44917246044326925 Qo=3.220998093700696e-13 K=2.62 tau=9.887567109220483e-08 off=-0.1

*Grain_202:
XU_202 in out fe_tanh Vc=0.4970982045975095 Qo=3.6747539328895963e-13 K=2.62 tau=9.631564746621201e-08 off=-0.1

*Grain_203:
XU_203 in out fe_tanh Vc=0.4481903379853805 Qo=3.211845507955338e-13 K=2.62 tau=1.0977948058846203e-07 off=-0.1

*Grain_204:
XU_204 in out fe_tanh Vc=0.41289113973263913 Qo=2.886952530045671e-13 K=2.62 tau=1.1109404795466857e-07 off=-0.1

*Grain_205:
XU_205 in out fe_tanh Vc=0.3484095648813857 Qo=2.3151039734820695e-13 K=2.62 tau=1.0555430676158576e-07 off=-0.1

*Grain_206:
XU_206 in out fe_tanh Vc=0.6140805860112095 Qo=4.83666923328444e-13 K=2.62 tau=1.085948788133416e-07 off=-0.1

*Grain_207:
XU_207 in out fe_tanh Vc=0.5240654070467572 Qo=3.935995124615797e-13 K=2.62 tau=9.621111587624429e-08 off=-0.1

*Grain_208:
XU_208 in out fe_tanh Vc=0.4253560207890842 Qo=3.0007635115528837e-13 K=2.62 tau=8.461182461581119e-08 off=-0.1

*Grain_209:
XU_209 in out fe_tanh Vc=0.7852038345162287 Qo=6.657796948307551e-13 K=2.62 tau=9.54643304655641e-08 off=-0.1

*Grain_210:
XU_210 in out fe_tanh Vc=0.8486704711507211 Qo=7.365703443114863e-13 K=2.62 tau=9.069431067836036e-08 off=-0.1

*Grain_211:
XU_211 in out fe_tanh Vc=0.02583569728718249 Qo=7.865741216283863e-15 K=2.62 tau=9.553191453828093e-08 off=-0.1

*Grain_212:
XU_212 in out fe_tanh Vc=0.3386348410759195 Qo=2.231025537515646e-13 K=2.62 tau=9.514965327003724e-08 off=-0.1

*Grain_213:
XU_213 in out fe_tanh Vc=0.6168706392949931 Qo=4.865256487048921e-13 K=2.62 tau=8.571955168225982e-08 off=-0.1

*Grain_214:
XU_214 in out fe_tanh Vc=0.6281816111923779 Qo=4.981546576919883e-13 K=2.62 tau=1.033563566615005e-07 off=-0.1

*Grain_215:
XU_215 in out fe_tanh Vc=0.8354598097299548 Qo=7.216998948213066e-13 K=2.62 tau=9.932645127241843e-08 off=-0.1

*Grain_216:
XU_216 in out fe_tanh Vc=1.0633229618003655 Qo=9.874569262954932e-13 K=2.62 tau=8.107120531819779e-08 off=-0.1

*Grain_217:
XU_217 in out fe_tanh Vc=-0.15629107995784175 Qo=8.165219427064189e-14 K=2.62 tau=9.062802982488712e-08 off=-0.1

*Grain_218:
XU_218 in out fe_tanh Vc=-0.08741255886002608 Qo=3.836183687121491e-14 K=2.62 tau=1.0624826758459865e-07 off=-0.1

*Grain_219:
XU_219 in out fe_tanh Vc=0.15991177579525917 Qo=8.411975329626834e-14 K=2.62 tau=1.0662770918442137e-07 off=-0.1

*Grain_220:
XU_220 in out fe_tanh Vc=0.6134362088704334 Qo=4.830072390742379e-13 K=2.62 tau=9.698816178569104e-08 off=-0.1

*Grain_221:
XU_221 in out fe_tanh Vc=0.27617391102477223 Qo=1.7115549849594955e-13 K=2.62 tau=9.89290698467915e-08 off=-0.1

*Grain_222:
XU_222 in out fe_tanh Vc=0.04898194994697369 Qo=1.8067593116854726e-14 K=2.62 tau=1.0279298753232953e-07 off=-0.1

*Grain_223:
XU_223 in out fe_tanh Vc=0.4662696635699986 Qo=3.3812845401840127e-13 K=2.62 tau=1.0846474406672518e-07 off=-0.1

*Grain_224:
XU_224 in out fe_tanh Vc=0.44460023273890076 Qo=3.1784398848374157e-13 K=2.62 tau=9.810908545160303e-08 off=-0.1

*Grain_225:
XU_225 in out fe_tanh Vc=0.06626800962535356 Qo=2.676384555699674e-14 K=2.62 tau=8.97642422701823e-08 off=-0.1

*Grain_226:
XU_226 in out fe_tanh Vc=0.5092952061363023 Qo=3.792397706106021e-13 K=2.62 tau=1.0780827898050661e-07 off=-0.1

*Grain_227:
XU_227 in out fe_tanh Vc=0.5139288931487415 Qo=3.837314151112536e-13 K=2.62 tau=1.0805273522854272e-07 off=-0.1

*Grain_228:
XU_228 in out fe_tanh Vc=-0.22905555666631428 Qo=1.3420740893714674e-13 K=2.62 tau=1.1122784181720403e-07 off=-0.1

*Grain_229:
XU_229 in out fe_tanh Vc=0.13262951958044306 Qo=6.596076226844074e-14 K=2.62 tau=1.0912806116002782e-07 off=-0.1

*Grain_230:
XU_230 in out fe_tanh Vc=0.6816466709108517 Qo=5.539627006355026e-13 K=2.62 tau=9.370834675429117e-08 off=-0.1

*Grain_231:
XU_231 in out fe_tanh Vc=0.3810698294873726 Qo=2.601113755537577e-13 K=2.62 tau=1.0491881448404672e-07 off=-0.1

*Grain_232:
XU_232 in out fe_tanh Vc=0.12294523651762523 Qo=5.976936326505425e-14 K=2.62 tau=1.0535851126244598e-07 off=-0.1

*Grain_233:
XU_233 in out fe_tanh Vc=0.09202273735395788 Qo=4.101258114367712e-14 K=2.62 tau=9.384413499429682e-08 off=-0.1

*Grain_234:
XU_234 in out fe_tanh Vc=0.32464924988490695 Qo=2.1119913508311874e-13 K=2.62 tau=9.112428977703288e-08 off=-0.1

*Grain_235:
XU_235 in out fe_tanh Vc=0.46630311085933374 Qo=3.3815998616309835e-13 K=2.62 tau=9.556161362714659e-08 off=-0.1

*Grain_236:
XU_236 in out fe_tanh Vc=0.6035758935251156 Qo=4.729387097382379e-13 K=2.62 tau=1.0830730132728314e-07 off=-0.1

*Grain_237:
XU_237 in out fe_tanh Vc=0.2410797294484722 Qo=1.4343737028270033e-13 K=2.62 tau=1.0685844340773973e-07 off=-0.1

*Grain_238:
XU_238 in out fe_tanh Vc=0.8227241003637082 Qo=7.074306885472911e-13 K=2.62 tau=9.53723156760807e-08 off=-0.1

*Grain_239:
XU_239 in out fe_tanh Vc=0.414349520251386 Qo=2.9002157243746187e-13 K=2.62 tau=7.97043057986304e-08 off=-0.1

*Grain_240:
XU_240 in out fe_tanh Vc=0.6543253964344135 Qo=5.25273293477712e-13 K=2.62 tau=8.479740110009681e-08 off=-0.1
