Version 4
SHEET 1 880 680
WIRE -192 -80 -192 -128
WIRE -160 -80 -160 -128
WIRE -128 -80 -128 -128
WIRE -208 -16 -352 -16
WIRE 16 -16 -96 -16
WIRE 352 -16 96 -16
WIRE 368 128 368 80
FLAG 352 -16 0
FLAG -352 64 0
FLAG 368 208 0
FLAG 368 80 Q
FLAG -352 -16 in
FLAG -192 -128 ql
FLAG -160 -128 qn
FLAG -128 -128 qt
SYMBOL voltage -352 -32 R0
WINDOW 123 0 0 Left 0
WINDOW 39 0 0 Left 0
WINDOW 3 -31 150 Left 2
SYMATTR InstName V1
SYMATTR Value SINE(0 2 5 0 0 0 10)
SYMBOL res 112 -32 R90
WINDOW 0 0 56 VBottom 2
WINDOW 3 32 56 VTop 2
SYMATTR InstName Rsh
SYMATTR Value 0.000001
SYMBOL bv 368 112 R0
SYMATTR InstName B1
SYMATTR Value V=idt(-I(Rsh))
SYMBOL fe_tanh -160 -16 R0
WINDOW 39 267 -172 Top 2
SYMATTR SpiceLine Vc=1 Qo=1 K=2.598076211353316
SYMATTR InstName U2
TEXT -384 88 Left 2 !.tran 0 0.4 0 1e-6
