Version 4
SHEET 1 2244 680
WIRE -128 -48 -128 -64
WIRE 576 64 512 64
WIRE 688 64 688 48
WIRE 688 64 576 64
WIRE 1744 64 1680 64
WIRE 1856 64 1856 48
WIRE 1856 64 1744 64
WIRE 512 80 512 64
WIRE 1680 80 1680 64
WIRE 576 96 576 64
WIRE 1744 96 1744 64
WIRE 688 144 688 64
WIRE 1856 144 1856 64
WIRE 176 192 -112 192
WIRE 512 192 512 160
WIRE 512 192 288 192
WIRE 544 192 512 192
WIRE 576 192 576 160
WIRE 576 192 544 192
WIRE 640 192 576 192
WIRE 1328 192 1168 192
WIRE 1680 192 1680 160
WIRE 1680 192 1456 192
WIRE 1712 192 1680 192
WIRE 1744 192 1744 160
WIRE 1744 192 1712 192
WIRE 1808 192 1744 192
WIRE 512 208 512 192
WIRE 1680 208 1680 192
WIRE 576 224 576 192
WIRE 1744 224 1744 192
WIRE 512 304 512 288
WIRE 576 304 576 288
WIRE 576 304 512 304
WIRE 688 304 688 240
WIRE 688 304 576 304
WIRE 720 304 688 304
WIRE 848 304 720 304
WIRE 1680 304 1680 288
WIRE 1744 304 1744 288
WIRE 1744 304 1680 304
WIRE 1856 304 1856 240
WIRE 1856 304 1744 304
WIRE 1888 304 1856 304
WIRE 2016 304 1888 304
WIRE 688 368 688 304
WIRE 1856 368 1856 304
WIRE 848 384 848 304
WIRE 2016 384 2016 304
WIRE 688 512 688 448
WIRE 848 512 848 448
WIRE 1856 512 1856 448
WIRE 2016 512 2016 448
FLAG -256 32 0
FLAG -256 -48 Vdd
FLAG 688 48 Vdd
FLAG 688 512 0
FLAG 848 512 0
FLAG -128 32 0
FLAG -112 192 in
FLAG -128 -64 in
FLAG 544 192 g
FLAG 720 304 s
FLAG 1856 48 Vdd
FLAG 1856 512 0
FLAG 2016 512 0
FLAG 1712 192 g1
FLAG 1888 304 s1
FLAG 1168 192 in
SYMBOL transistor 672 192 R0
WINDOW 3 103 -17 Top 2
WINDOW 39 230 -165 Top 2
SYMATTR InstName U2
SYMBOL voltage -256 -64 R0
WINDOW 123 0 0 Left 0
WINDOW 39 0 0 Left 0
SYMATTR InstName V1
SYMATTR Value 3.3
SYMBOL cap 560 96 R0
SYMATTR InstName C1
SYMATTR Value 23p
SYMBOL cap 560 224 R0
SYMATTR InstName C2
SYMATTR Value 80p
SYMBOL res 496 192 R0
SYMATTR InstName R1
SYMATTR Value 1e50
SYMBOL res 496 64 R0
SYMATTR InstName R2
SYMATTR Value 1e50
SYMBOL current 688 368 R0
WINDOW 123 0 0 Left 0
WINDOW 39 0 0 Left 0
SYMATTR InstName I1
SYMATTR Value 0.39µ
SYMBOL cap 832 384 R0
SYMATTR InstName C3
SYMATTR Value 0.1µ
SYMBOL voltage -128 -64 R0
WINDOW 123 0 0 Left 0
WINDOW 39 0 0 Left 0
SYMATTR InstName V2
SYMATTR Value 1
SYMBOL fe_tanh 224 192 R0
WINDOW 39 261 -257 Top 2
SYMATTR SpiceLine Vc=0.23 Qo=20p K=2.62 tau=1e-10 off=-0.42 rp=1e50 cp=1e-12
SYMATTR InstName U1
SYMBOL transistor 1840 192 R0
WINDOW 3 103 -17 Top 2
WINDOW 39 230 -165 Top 2
SYMATTR InstName U3
SYMBOL cap 1728 96 R0
SYMATTR InstName C4
SYMATTR Value 23p
SYMBOL cap 1728 224 R0
SYMATTR InstName C5
SYMATTR Value 80p
SYMBOL res 1664 192 R0
SYMATTR InstName R3
SYMATTR Value 1e50
SYMBOL res 1664 64 R0
SYMATTR InstName R4
SYMATTR Value 1e50
SYMBOL current 1856 368 R0
WINDOW 123 0 0 Left 0
WINDOW 39 0 0 Left 0
SYMATTR InstName I2
SYMATTR Value 0.39µ
SYMBOL cap 2000 384 R0
SYMATTR InstName C6
SYMATTR Value 0.1µ
SYMBOL Cfe_I 1392 192 R0
SYMATTR SpiceLine Qf=22p Cs=1p Vup=-0.19 Vdw=-0.65
SYMATTR InstName U4
TEXT -264 88 Left 2 !.ic V(g)=0 V(s)=0 V(g1)=0 V(s1)=0
TEXT 112 384 Left 2 !.tran 0 0.5 0 500n startup
